/*--------------------------------*- C++ -*----------------------------------*\
|                                                                             |
|                Generated by the CfdOF workbench for FreeCAD                 |
|                      https://github.com/jaheyns/CfdOF                       |
|                                                                             |
\*---------------------------------------------------------------------------*/
FoamFile
{
    version     2.0;
    format      ascii;
    class       dictionary;
    object      thermophysicalProperties;
}
// * * * * * * * * * * * * * * * * * * * * * * * * * * * * * * * * * * * * * //

thermoType
{
    type            heRhoThermo;
    mixture         pureMixture;
    specie          specie;
    equationOfState icoPolynomial;
    thermo          hPolynomial;
    transport       polynomial;
    energy          sensibleEnthalpy;
}


mixture
{
   specie
   {
       nMoles          1;
       molWeight       28.964389774888698;
   }
   thermodynamics
   {
       CpCoeffs<8>    (7.46280686e+02 -3.43089623e-02 -1.10794287e-15  0.0
                       0.0             0.0             0.0             0.0);
       Hf              0; // Assume zero, shouldn't matter for this simulation
       Sf              0; // Entropy of formation, also assume zero
   }
   transport
   {
       muCoeffs<8>     (1.22735116e-01 -5.56719188e-04  1.10351206e-06 -1.22401050e-09
                        8.15802178e-13  0.0             0.0             0.0);
       kappaCoeffs<8>  (6.59350384e-01 -1.76393862e-04  0.0             0.0
                        0.0             0.0             0.0             0.0);
   }
   equationOfState
   {
       rhoCoeffs<8>     (4.47800845e+05 -2.45403578e+03  5.76051775e+00 -7.36040497e-03
                         5.51325585e-06 -2.42280478e-09  5.79388767e-13  0.0);
   }
}

// ************************************************************************* //
