/*--------------------------------*- C++ -*----------------------------------*\
|                                                                             |
|                Generated by the CfdOF workbench for FreeCAD                 |
|                      https://github.com/jaheyns/CfdOF                       |
|                                                                             |
\*---------------------------------------------------------------------------*/
FoamFile
{
    version     2.0;
    format      ascii;
    class       volScalarField;
    object      p_rgh;
}
// * * * * * * * * * * * * * * * * * * * * * * * * * * * * * * * * * * * * * //

dimensions      [1 -1 -2 0 0 0 0];

internalField   uniform 100000.0;

boundaryField
{

    endCaps
    {
        type        fixedFluxPressure;
        value       $internalField;
    }

    circularWall
    {
        type        fixedFluxPressure;
        value       $internalField;
    }

    defaultFaces
    {
        type        fixedFluxPressure;
        value       $internalField;
    }

}

// ************************************************************************* //
