/*--------------------------------*- C++ -*----------------------------------*\
|                                                                             |
|                Generated by the CfdOF workbench for FreeCAD                 |
|                      https://github.com/jaheyns/CfdOF                       |
|                                                                             |
\*---------------------------------------------------------------------------*/
FoamFile
{
    version     2.0;
    format      ascii;
    class       volScalarField;
    object      T;
}
// * * * * * * * * * * * * * * * * * * * * * * * * * * * * * * * * * * * * * //

dimensions      [0 0 0 1 0 0 0];

internalField   uniform 800.0;

boundaryField
{

    endCaps
    {
        type        zeroGradient;
        value       $internalField;
    }

    circularWall
    {
    	type            fixedProfile;
   	    profile         table;
	    profileCoeffs
        {
            file		            "axial_temp_profile.csv";
            interpolationScheme     linear;
        }
	    direction       (0 0 1);
	    origin 		    0;
    }

    defaultFaces
    {
        type        zeroGradient;
        value       $internalField;
    }

}

// ************************************************************************* //
