/*--------------------------------*- C++ -*----------------------------------*\
|                                                                             |
|                Generated by the CfdOF workbench for FreeCAD                 |
|                      https://github.com/jaheyns/CfdOF                       |
|                                                                             |
\*---------------------------------------------------------------------------*/
FoamFile
{
    version     2.0;
    format      ascii;
    class       volScalarField;
    object      T;
}
// * * * * * * * * * * * * * * * * * * * * * * * * * * * * * * * * * * * * * //

dimensions      [0 0 0 1 0 0 0];

internalField   uniform 800.0;

boundaryField
{

    endCaps
    {
        type        zeroGradient;
        value       $internalField;
    }

    circularWall
    {
        type        fixedGradient;
        gradient    uniform 218000.0;
    }

    defaultFaces
    {
        type        zeroGradient;
        value       $internalField;
    }

}

// ************************************************************************* //
