/*--------------------------------*- C++ -*----------------------------------*\
|                                                                             |
|                Generated by the CfdOF workbench for FreeCAD                 |
|                      https://github.com/jaheyns/CfdOF                       |
|                                                                             |
\*---------------------------------------------------------------------------*/
FoamFile
{
    version     2.0;
    format      ascii;
    class       volScalarField;
    object      T;
}
// * * * * * * * * * * * * * * * * * * * * * * * * * * * * * * * * * * * * * //

dimensions      [0 0 0 1 0 0 0];

internalField   uniform 800.0;

boundaryField
{

    endCaps
    {
        type        zeroGradient;
        value       $internalField;
    }

    circularWall
    {
        type        fixedValue;
        value       $internalField;
        table ((0, 800.06), (1, 831.82), (2, 856.74), (3, 876.35), (4, 892.13), (5, 905.17), (6, 916.26), (7, 925.73), (8, 928.19), (9, 928.27), (10, 927.77), (11, 927.86), (12, 928.04), (13, 927.58), (14, 927.83), (15, 927.79), (16, 927.87), (17, 928.06), (18, 928.18), (19, 928.27), (20, 928.3), (21, 928.32), (22, 928.34), (23, 928.33), (24, 928.32), (25, 928.32), (26, 928.31), (27, 928.3), (28, 928.3), (29, 928.29), (30, 908.65));
    }

    defaultFaces
    {
        type        zeroGradient;
        value       $internalField;
    }

}

// ************************************************************************* //
