/*--------------------------------*- C++ -*----------------------------------*\
|                                                                             |
|                Generated by the CfdOF workbench for FreeCAD                 |
|                      https://github.com/jaheyns/CfdOF                       |
|                                                                             |
\*---------------------------------------------------------------------------*/
FoamFile
{
    version     2.0;
    format      ascii;
    class       volScalarField;
    object      T;
}
// * * * * * * * * * * * * * * * * * * * * * * * * * * * * * * * * * * * * * //

dimensions      [0 0 0 1 0 0 0];

internalField   uniform 290.0;

boundaryField
{

    constraint
    {
        type        symmetry;
        value       $internalField;
    }

    wall
    {
        type        fixedGradient;
        gradient    uniform 280000.0;
    }

    inlet
    {
        type        inletOutlet;
        inletValue  uniform 850.0;
        value       uniform 850.0;
    }

    outlet
    {
        // Value is taken from the internal field unless there is backflow
        type        inletOutlet;
        inletValue  uniform 1200.0; // This value is only used during backflow
        value       $internalField; // Dynamically use internal field
    }

    defaultFaces
    {
        type        zeroGradient;
        value       $internalField;
    }

}

// ************************************************************************* //
