/*--------------------------------*- C++ -*----------------------------------*\
|                                                                             |
|                Generated by the CfdOF workbench for FreeCAD                 |
|                      https://github.com/jaheyns/CfdOF                       |
|                                                                             |
\*---------------------------------------------------------------------------*/
FoamFile
{
    version     2.0;
    format      ascii;
    class       volScalarField;
    object      p;
}
// * * * * * * * * * * * * * * * * * * * * * * * * * * * * * * * * * * * * * //

dimensions      [1 -1 -2 0 0 0 0];

internalField   uniform 100000.0;

boundaryField
{

    constraint
    {
        type        symmetry;
        value       $internalField;
    }

    wall
    {
        type        calculated;
        value       $internalField;
    }

    inlet
    {
        type        calculated;
        value       $internalField;
    }

    outlet
    {
        type        fixedValue;
        value       uniform 101325;
    }

    defaultFaces
    {
        type        calculated;
        value       $internalField;
    }

}

// ************************************************************************* //
