/*--------------------------------*- C++ -*----------------------------------*\
|                                                                             |
|                Generated by the CfdOF workbench for FreeCAD                 |
|                      https://github.com/jaheyns/CfdOF                       |
|                                                                             |
\*---------------------------------------------------------------------------*/
FoamFile
{
    version     2.0;
    format      ascii;
    class       dictionary;
    object      thermophysicalProperties;
}
// * * * * * * * * * * * * * * * * * * * * * * * * * * * * * * * * * * * * * //

thermoType
{
    type            heRhoThermo;
    mixture         pureMixture;
    specie          specie;
    equationOfState icoPolynomial;
    thermo          hPolynomial;
    transport       polynomial;
    energy          sensibleEnthalpy;
}


mixture
{
   specie
   {
       nMoles          1;
       molWeight       28.964389774888698;
   }
   thermodynamics
   {
       CpCoeffs<8>    (1.84947141e+03  1.03187842e-09 -3.80570898e-12  8.19691526e-15
                       0.0             0.0             0.0             0.0);
       Hf              0; // Assume zero, shouldn't matter for this simulation
       Sf              0; // Entropy of formation, also assume zero
   }
   transport
   {
       muCoeffs<8>     (2.57031592e+00 -1.84118251e-02  5.99116980e-05 -1.15814888e-07
                        1.46732762e-10  0.0             0.0             0.0);
       kappaCoeffs<8>  (1.36035899e+00 -3.21222624e-04  0.0             0.0
                        0.0             0.0             0.0             0.0);
   }
   equationOfState
   {
       rhoCoeffs<8>     (2.62624915e+03 -6.12287310e-01 -6.59982186e-07 -6.64646978e-11
                        -1.46525762e-13  1.13518532e-16 -8.93703097e-20  4.34420323e-23);
   }
}

// ************************************************************************* //
