/*--------------------------------*- C++ -*----------------------------------*\
|                                                                             |
|                Generated by the CfdOF workbench for FreeCAD                 |
|                      https://github.com/jaheyns/CfdOF                       |
|                                                                             |
\*---------------------------------------------------------------------------*/
FoamFile
{
    version     2.0;
    format      ascii;
    class       dictionary;
    object      fvSolution;
}
// * * * * * * * * * * * * * * * * * * * * * * * * * * * * * * * * * * * * * //

SIMPLE
{
    momentumPredictor no;
    nNonOrthogonalCorrectors 0;
    pRefCell        0;
    pRefValue       0;

    residualControl
    {
        p_rgh           1e-4;
        U               1e-4;
        h               1e-4;

        // possibly check turbulence fields
        "(k|epsilon|omega)" 1e-3;
    }
}

solvers
{
    p
    {
        solver           GAMG;
        tolerance        0;
        relTol           0.01;

        smoother         DICGaussSeidel;

    }
    
    "rho.*"
    {
        solver           GAMG;
        tolerance        0;
        relTol           0;
        smoother         DICGaussSeidel;
    }


    "(U|h|k|epsilon|omega|nuTilda)"
    {
        solver          PBiCGStab;
        preconditioner  none;
        tolerance       1e-8;
        relTol          0.1;
    }

    "(U|h|k|epsilon|omega|nuTilda)Final"
    {
	$U;
	tolerance 	1e-6;
	relTol		0;
    }
}

relaxationFactors
{
    // Conservative settings to solve reliably on bad
    // meshes
    equations
    {
        U               0.3;
        h               0.3;
        "(k|epsilon|omega|nuTilda)" 0.7;
    }

    fields
    {
        p               0.3;
    }
}

// ************************************************************************* //
